Version 4.1
SHEET 1 1132 824
WIRE -352 -176 -496 -176
WIRE -96 -176 -272 -176
WIRE -64 -176 -96 -176
WIRE 80 -176 80 -208
WIRE 80 -176 16 -176
WIRE 80 -80 80 -176
WIRE -96 -64 -96 -176
WIRE -112 -48 -176 -48
WIRE -112 -16 -128 -16
WIRE -496 0 -496 -176
WIRE -496 0 -768 0
WIRE -336 0 -496 0
WIRE -768 32 -768 0
WIRE -336 32 -336 0
WIRE -128 32 -128 -16
WIRE -128 32 -176 32
WIRE -768 128 -768 96
WIRE -672 128 -768 128
WIRE -544 128 -608 128
WIRE -496 128 -496 0
WIRE -336 128 -336 112
WIRE -768 192 -768 128
WIRE -496 224 -496 192
WIRE -336 224 -336 192
WIRE -336 224 -496 224
WIRE -768 320 -768 272
WIRE -768 432 -768 400
WIRE -496 432 -496 224
WIRE -496 432 -768 432
WIRE -96 432 -96 0
WIRE -96 432 -496 432
WIRE 80 432 80 0
WIRE 80 432 -96 432
WIRE 80 448 80 432
FLAG 80 448 0
FLAG 80 -208 LI
SYMBOL res -256 -192 R90
WINDOW 0 0 56 VBottom 2
WINDOW 3 32 56 VTop 2
SYMATTR InstName LOAD
SYMATTR Value 500
SYMBOL voltage 80 16 R180
WINDOW 123 0 0 Left 0
WINDOW 39 0 0 Left 0
WINDOW 0 44 57 Left 2
WINDOW 3 -57 -19 VRight 2
SYMATTR InstName V1
SYMATTR Value SINE(0 325 50)
SYMBOL res -784 176 R0
SYMATTR InstName R4
SYMATTR Value 200k
SYMBOL cap -784 32 R0
WINDOW 0 -39 24 Left 2
WINDOW 3 -54 52 Left 2
SYMATTR InstName C1
SYMATTR Value 82n
SYMBOL cap -352 128 R0
WINDOW 0 47 28 Left 2
WINDOW 3 47 58 Left 2
SYMATTR InstName C2
SYMATTR Value 10n
SYMBOL res -352 16 R0
WINDOW 0 48 47 Left 2
WINDOW 3 50 72 Left 2
SYMATTR InstName R1
SYMATTR Value 39
SYMBOL SpecialFunctions\\varistor -80 32 M180
WINDOW 0 5 84 Left 2
SYMATTR InstName A1
SYMBOL voltage -176 -64 R0
WINDOW 0 -69 43 Left 2
WINDOW 3 -85 70 Left 2
WINDOW 123 0 0 Left 0
WINDOW 39 0 0 Left 0
SYMATTR InstName V3
SYMATTR Value 470
SYMBOL res 32 -192 R90
WINDOW 0 0 56 VBottom 2
WINDOW 3 32 56 Invisible 2
SYMATTR InstName FUSE
SYMATTR Value 0
SYMBOL res -784 304 R0
SYMATTR InstName R3
SYMATTR Value 4.7k
SYMBOL MyLib\\TRIAC\\ST_TRIAC -528 192 M180
WINDOW 0 75 28 Left 2
WINDOW 38 41 1 Left 2
SYMATTR InstName U3
SYMBOL MyLib\\DIAC\\Alexander_DB3 -608 96 R90
WINDOW 0 0 32 VBottom 2
WINDOW 38 94 30 VBottom 2
SYMATTR InstName U4
TEXT -760 -136 Left 2 !.tran 60m
TEXT -72 -24 Left 2 ;MOV\n470V
TEXT -304 112 Left 2 ;2W
TEXT -304 208 Left 2 ;400V
TEXT -856 112 Left 2 ;400V
